ieee.odm.test/testdata/psse/Model_testv30.raw
 0,    100.00, 30, 0, 0, 60.00       / July 29, 2008 15:37:47
Original source NETMOM data came from empprda RTNET EMS at 06/09/2008 17:12:59
(Solution Time Mon Jun 09 17:12:58 EDT 2008) with a Network Data Description of:
    1,'0000        ', 345.0000,1,     0.000,     0.000,   1,   1,1.0384173,   3.08000,   1
    3,'0001        ', 345.0000,2,     0.000,     0.000,   1,   1,1.0384173,   3.08000,   1
   14,'0002        ', 345.0000,4,     0.000,     0.000,   1,   1,1.0000000,   0.00000,   1
   15,'0003        ', 345.0000,4,     0.000,     0.000,   1,   1,1.0000000,   0.00000,   1
   16,'0004        ', 345.0000,1,     0.000,     0.000,   1,   1,1.0381972,   1.39000,   1
   17,'0005        ', 345.0000,1,     0.000,     0.000,   1,   1,1.0381972,   1.39000,   1
   18,'0006        ', 345.0000,4,     0.000,     0.000,   1,   1,1.0000000,   0.00000,   1
   19,'0007        ', 345.0000,4,     0.000,     0.000,   1,   1,1.0000000,   0.00000,   1
   24,'0009        ', 345.0000,1,     0.000,     0.000,   1,   1,1.0381972,   1.39000,   1
   26,'0010        ', 345.0000,1,     0.000,     0.000,   1,   1,1.0381972,   1.39000,   1
   27,'0011        ', 345.0000,1,     0.000,     0.000,   1,   1,1.0381972,   1.39000,   1
   31,'0014        ', 115.0000,1,     0.000,     0.000,   1,   1,1.0678695,   3.67000,   1
   34,'0016        ', 115.0000,1,     0.000,     0.000,   1,   1,1.0678695,   3.67000,   1
   39,'0020        ', 115.0000,1,     0.000,     0.000,   1,   1,1.0678695,   3.67000,   1
   40,'0021        ', 115.0000,4,     0.000,     0.000,   1,   1,1.0000000,   0.00000,   1
   54,'0028        ',   1.0000,1,     0.000,     0.000,   1,   1,1.0549999,   1.98000,   1
   55,'0029        ',   1.0000,1,     0.000,     0.000,   1,   1,1.0270000,   4.27000,   1
   62,'0032        ', 115.0000,2,     0.000,     0.000,   1,   1,1.0275826,   7.15000,   1
  220,'0088        ', 115.0000,1,     0.000,     0.000,   1,   2,1.0303565, -20.36000,   1
 1511,'0614        ', 115.0000,2,     0.000,     0.000,   1,   4,1.0254000,  -3.02000,   1
 5457,'2161        ', 115.0000,1,     0.000,     0.000,   1,  11,1.0349131, -14.70000,   1
 7060,'2863        ', 345.0000,4,     0.000,     0.000,   1,  26,1.0000000,   0.00000,   1
 8441,'3477        ', 115.0000,1,     0.000,     0.000,   1,  26,1.0317652, -47.99000,   1
 8859,'3681        ', 345.0000,1,     0.000,     0.000,   3,  27,1.0408232,   6.46000,   1  
27824,'16PETE      ', 345.0000,1,     0.000,     0.000, 216,1216,1.02000,     -5.1589,   1
27857,'16LAWRNC    ', 138.0000,1,     0.000,     0.000, 216,1216,1.00338,    -32.7294,   1
27871,'16PETE      ', 138.0000,1,     0.000,     0.000, 216,1216,0.99940,     -9.0774,   1 
0 / END OF BUS DATA, BEGIN LOAD DATA
   24,'1 ',1,   1,   1,     0.000,     0.000,     0.000,     0.000,     0.000,    -0.000,   1
   39,'1 ',1,   1,   1,     0.000,     0.000,     0.000,     0.000,     0.000,    -0.000,   1
  220,'1 ',1,   1,   2,     1.152,    24.314,     0.000,     0.000,     0.000,    -0.000,   1
  220,' 2',1,   1,   2,    28.791,     6.072,     0.000,     0.000,     0.000,    -0.000,   1
0 / END OF LOAD DATA, BEGIN GENERATOR DATA
    3,'1 ',     0.000,   -65.628,   441.000,  -155.000,1.03842,    1,   100.000,   0.00000,   1.00000,   0.00000,   0.00000,1.00000,1,  100.0,     0.000,     0.000,   1,1.0000,   0,1.0000,   0,1.0000,   0,1.0000
   62,'1 ',    14.539,     0.000,     0.000,     0.000,1.00000,    0,   100.000,   0.00000,   1.00000,   0.00000,   0.00000,1.00000,1,  100.0,   130.000,     0.000,   1,1.0000,   0,1.0000,   0,1.0000,   0,1.0000
 1511,'1 ',     7.560,     0.000,     0.000,     0.000,1.06000,    0,   100.000,   0.00000,   1.00000,   0.00000,   0.00000,1.00000,1,  100.0,    17.150,     0.000,   1,1.0000,   0,1.0000,   0,1.0000,   0,1.0000
 1511,'2 ',     0.726,     0.000,     0.000,     0.000,1.06000,    0,   100.000,   0.00000,   1.00000,   0.00000,   0.00000,1.00000,1,  100.0,     1.532,     0.000,   1,1.0000,   0,1.0000,   0,1.0000,   0,1.0000
 1511,'3 ',     2.424,     0.000,     0.000,     0.000,1.06000,    0,   100.000,   0.00000,   1.00000,   0.00000,   0.00000,1.00000,1,  100.0,     7.500,     0.000,   1,1.0000,   0,1.0000,   0,1.0000,   0,1.0000
 1511,'4 ',     5.751,     0.000,     0.000,     0.000,1.06000,    0,   100.000,   0.00000,   1.00000,   0.00000,   0.00000,1.00000,1,  100.0,     9.500,     0.000,   1,1.0000,   0,1.0000,   0,1.0000,   0,1.0000
0 / END OF GENERATOR DATA, BEGIN BRANCH DATA
    1,     3,'1 ', 0.00000, 0.00001,0.00000,9999.00,9999.00,9999.00,  0.00000,  0.00000,  0.00000,  0.00000,1,   0.0,   1,1.0000,   0,1.0000,   0,1.0000,   0,1.0000
   16,     1,'1 ', 0.00240, 0.02560,0.42720,1000.00,1000.00,1056.00,  0.00000,  0.00000,  0.00000,  0.00000,1,   0.0,   1,1.0000,   0,1.0000,   0,1.0000,   0,1.0000
    1,  8859,'1 ', 0.00476, 0.05130,0.81550, 719.00, 719.00,1025.00,  0.00000,  0.00000,  0.00000,  0.00000,1,   0.0,   1,1.0000,   0,1.0000,   0,1.0000,   0,1.0000
   15,    14,'1 ', 0.00000, 0.00001,0.00000,9999.00,9999.00,9999.00,  0.00000,  0.00000,  0.00000,  0.00000,0,   0.0,   1,1.0000,   0,1.0000,   0,1.0000,   0,1.0000
   24,    14,'1 ', 0.00000, 0.00001,0.00000,9999.00,9999.00,9999.00,  0.00000,  0.00000,  0.00000,  0.00000,0,   0.0,   1,1.0000,   0,1.0000,   0,1.0000,   0,1.0000
   26,    17,'1 ', 0.00000, 0.00001,0.00000,9999.00,9999.00,9999.00,  0.00000,  0.00000,  0.00000,  0.00000,1,   0.0,   1,1.0000,   0,1.0000,   0,1.0000,   0,1.0000
   19,    18,'1 ', 0.00000,-0.02050,0.00000,1255.00,1427.00,1501.00,  0.00000,  0.00000,  0.00000,  0.00000,0,   0.0,   1,1.0000,   0,1.0000,   0,1.0000,   0,1.0000
   19,    18,'2 ', 0.00000, 0.00001,0.00000,9999.00,9999.00,9999.00,  0.00000,  0.00000,  0.00000,  0.00000,0,   0.0,   1,1.0000,   0,1.0000,   0,1.0000,   0,1.0000
0 / END OF BRANCH DATA, BEGIN TRANSFORMER DATA
   26,   54,    0,'1 ',1,1,1,  0.00000,  0.00000,2,'        ',1,   1,1.0000,   0,1.0000,   0,1.0000,   0,1.0000
 0.00035, 0.00910, 100.00
0.97500,  0.000,   0.000, 363.00, 398.00, 510.00,0,     0, 1.05000, 0.95000, 1.10000, 0.90000,  5, 0, 0.00000, 0.00000
1.00000,  0.000
   27,   55,    0,'1 ',1,1,1,  0.00000,  0.00000,2,'        ',1,   1,1.0000,   0,1.0000,   0,1.0000,   0,1.0000
 0.00045, 0.04720, 100.00
0.97500,  0.000,   0.000, 362.00, 462.00, 504.00,0,     0, 1.05000, 0.95000, 1.05200, 1.05200,  5, 0, 0.00000, 0.00000
1.00000,  0.000
   31,   54,    0,   '1 ',1,1,1,   0.00000,   0.00000,2,'        ',    1,   1,1.0000,   0,1.0000,   0,1.0000,   0,1.0000
 0.00035, 0.02610, 100.00
1.03125,  0.000,   0.000, 363.00, 398.00, 510.00,1,   -31, 1.10000, 0.90000, 1.09255, 1.04255, 33, 0, 0.00000, 0.00000
1.00000,  0.000
 27824, 27871, 27857,'W ',2,2,1,   0.00089,  -0.00448,1,'D575121     ',1,   1,1.0000
 0.00133, 0.11469,  90.00,   0.00124,   0.02795,    22.29,   0.00108,   0.06264,    22.29,1.00436,  -9.5049
352.001, 360.000,   0.000,   150.00,   150.00,   150.00, 0,      0,540.0000,183.6000, 1.50000, 0.51000,  33, 0, 0.00000, 0.00000
137.500, 137.500,   0.000,   150.00,   150.00,   150.00, 0,      0, 0.00000, 0.00000, 0.00000, 0.00000,  33, 0, 0.00000, 0.00000
34.5000,  34.500, -30.000,    22.29,    22.29,    22.29, 0,      0, 0.00000, 0.00000, 0.00000, 0.00000,  33, 0, 0.00000, 0.00000
0 / END OF TRANSFORMER DATA, BEGIN AREA DATA
   1,    0,     0.000,     1.000,'NEPEX       '
   2,    0,     0.000,     1.000,'NYPP        '
   3,    0,     0.000,     1.000,'NBEPC       '
   4,    0,     0.000,     1.000,'HQ          '
0 / END OF AREA DATA, BEGIN TWO-TERMINAL DC DATA
  1,1,   13.7500,    552.00,    410.00,     -1.00,   13.7500,   0.10000,'I',      0.00,  20,   1.00000
615600, 2,19.00,15.00, 0.0000,21.6000, 230.0,0.74260,0.97500,1.20000,0.90000,0.01250,     0,     0,     0,'1 ', 0.0000
615353, 2,18.00,18.00, 0.0000,19.8000, 345.0,0.47140,0.95221,1.21250,0.91250,0.00001,     0,     0,     0,'1 ', 0.0000
  2,1,   13.7500,    552.00,    410.00,     -1.00,   13.7500,   0.10000,'I',      0.00,  20,   1.00000
615600, 2,19.00,15.00, 0.0000,21.6000, 230.0,0.74260,0.97500,1.20000,0.90000,0.01250,     0,     0,     0,'1 ', 0.0000
615353, 2,18.00,18.00, 0.0000,19.8000, 345.0,0.47140,0.95221,1.21250,0.91250,0.00001,     0,     0,     0,'1 ', 0.0000
0 / END OF TWO-TERMINAL DC DATA, BEGIN VOLTAGE SOURCE CONVERTER DATA
0 / END OF VOLTAGE SOURCE CONVERTER DATA, BEGIN SWITCHED SHUNT DATA
   40,1,1.05295,1.02295,   22,100.0,'        ',   67.00, 1,  67.00
 5457,1,1.06862,0.99862,    0,100.0,'        ',   36.60, 1,  24.40, 1,  12.20
 7060,0,0.00000,0.00000,    0,100.0,'        ',  -78.90, 1, -78.90
 8441,1,1.03869,0.99869,    0,100.0,'        ',  334.80, 3,  50.40, 1,  37.80, 2,  36.00, 1,  37.80, 1,  36.00
0 / END OF SWITCHED SHUNT DATA, BEGIN IMPEDANCE CORRECTION DATA
 1,   1.00,1.00000,   1.28,1.00000,   1.57,1.00000
14, -40.00,2.00400, -23.00,1.28100, -20.40,1.22300, -15.50,1.11600,  -8.00,1.02900,   0.00,1.00000,   8.00,1.03000,  15.00,1.23300,  23.00,1.46800,  40.00,2.00200
16, -60.00,100.00000, -46.83,60.12400, -32.30,32.64460, -16.43,8.47110,   0.00,1.00000,  16.43,8.47000,  32.30,32.64460,  46.83,60.12400,  60.00,100.00000
20, -30.00,1.67000, -27.50,1.59000, -24.90,1.43000, -22.30,1.32000, -19.30,1.21000, -16.50,1.13000, -13.50,1.06000, -10.30,1.02000,  -7.00,1.01500,  -3.60,1.01000,   0.00,1.00000
0 / END OF IMPEDANCE CORRECTION DATA, BEGIN MULTI-TERMINAL DC DATA
0 / END OF MULTI-TERMINAL DC DATA, BEGIN MULTI-SECTION LINE DATA
0 / END OF MULTI-SECTION LINE DATA, BEGIN ZONE DATA
   1,'BHE     '
   2,'BE      '
   3,'BELD    '
0 / END OF ZONE DATA, BEGIN INTER-AREA TRANSFER DATA
   1,   2,'1',     0.00
   1,   3,'1',     0.00
   1,   4,'1',     0.00
0 / END OF INTER-AREA TRANSFER DATA, BEGIN OWNER DATA
    1,'1'
0 / END OF OWNER DATA, BEGIN FACTS CONTROL DEVICE DATA
0 / END OF FACTS CONTROL DEVICE DATA
